88
choline chloride form beta unit cell - xyz file
Cl1         0.00000        0.00000        9.41400
Cl1         0.00000        4.70700        4.70700
Cl1         4.70700        0.00000        4.70700
Cl1         4.70700        4.70700        9.41400
N1          4.70700        4.70700        4.70700
C4          5.62000        5.73000        5.39400
C5          4.89400        6.91000        6.05400
O1          5.84900        7.83600        6.57200
H1          5.66600        7.91800        7.52900
C1          3.72500        5.35300        3.74800
C2          3.94300        3.90800        5.74700
C3          5.57500        3.71600        3.93200
H4A         6.30700        6.11200        4.62800
H4B         6.23300        5.19200        6.12800
H5A         4.29500        7.46400        5.32600
H5B         4.23300        6.58800        6.86100
H1A         4.29200        5.97400        3.04700
H1B         3.02100        5.96400        4.31500
H1C         3.19100        4.56600        3.20700
H2A         3.36200        3.15400        5.21300
H2B         3.29200        4.59000        6.29700
H2C         4.66200        3.42400        6.41200
H3A         6.15200        4.27600        3.19000
H3B         4.92200        2.99900        3.42800
H3C         6.24600        3.21400        4.63500
N1          4.70700        0.00000        9.41400
C4          5.53400        0.93400       10.30400
C5          4.73200        1.65900       11.39400
O1          5.49300        2.73500       11.93300
H1          0.06100        8.67800       11.61200
C1          3.84200        0.82800        8.45500
C2          3.79600       -0.91500       10.21400
C3          5.64600       -0.83900        8.55700
H4A         6.05300        1.64100        9.64600
H4B         6.30800        0.32100       10.78300
H5A         3.78000        2.05900       11.03600
H5B         4.51000        0.97300       12.21800
H1A         4.50200        1.46500        7.86200
H1B         3.14600        1.43300        9.03700
H1C         3.29000        0.13800        7.81200
H2A         3.29500       -1.60000        9.52400
H2B         3.05900       -0.30900       10.74600
H2C         4.41400       -1.47400       10.92300
H3A         6.28100       -0.16800        7.97200
H3B         5.04700       -1.48000        7.90300
H3C         6.25700       -1.45400        9.22400
N1          0.00000        4.70700        9.41400
C4          0.73900        5.85000       10.14200
C5         -0.15300        7.00400       10.61200
O1          0.64400        7.95800       11.30800
H1          5.39300        3.48600       11.29200
C1         -0.56800        5.16700        8.09900
C2         -1.07800        4.07100       10.27000
C3          1.06800        3.64900        9.19200
H4A         1.51400        6.22800        9.46300
H4B         1.25000        5.41400       11.01100
H5A        -0.62700        7.51100        9.76800
H5B        -0.92300        6.65500       11.30400
H1A         0.23300        5.64600        7.53600
H1B        -1.36800        5.88600        8.29900
H1C        -0.98500        4.29700        7.58800
H2A        -1.49600        3.21500        9.73200
H2B        -1.86500        4.80800       10.44700
H2C        -0.63200        3.75300       11.21700
H3A         1.82800        4.06500        8.53200
H3B         0.57500        2.78800        8.76800
H3C         1.50500        3.37100       10.15700
N1          0.00000        0.00000        4.70700
C4          1.04900        0.88200        5.35100
C5          0.46000        1.85600        6.33400
O1          1.37600        2.91400        6.54600
H1          1.04900        3.62400        5.92900
C1         -0.86900        0.79500        3.74900
C2         -0.84800       -0.72500        5.74000
C3          0.78800       -1.04500        3.90800
H4A         1.59000        1.39900        4.55100
H4B         1.75500        0.23200        5.87800
H5A        -0.51700        2.25100        6.04900
H5B         0.30600        1.36300        7.27200
H1A        -0.22200        1.36200        3.07300
H1B        -1.52400        1.45800        4.31600
H1C        -1.47700        0.08700        3.17600
H2A        -1.49000       -1.43600        5.21100
H2B        -1.47000        0.00200        6.26700
H2C        -0.18200       -1.26000        6.42200
H3A         1.40700       -0.52600        3.16900
H3B         0.07500       -1.70600        3.40600
H3C         1.40900       -1.62100        4.60100
